/batch
/config,noeldb,1     ! force off writing results to database
*get,_wallstrt,active,,time,wall
! ANSYS input file written by Workbench version 2023 R2
! File used for geometry attach: Z:\FEMTryAgain\EX0\EX0_files\dp0\SYS\DM\SYS.agdb
/title,EX1--____ (A5)
! ****** Begin Custom Load Command Snippet ******
/COM, ACT Extensions:
/COM,     LSDYNA, 2023.2
/COM,     5f463412-bd3e-484b-87e7-cbc0a665e474, wbex
/COM,/COM,     ANSYSMotion, 2023.2
/COM,     20180725-3f81-49eb-9f31-41364844c769, wbex
/COM,
! ****** End   Custom Load Command Snippet ******
*DIM,_wb_ProjectScratch_dir,string,248
_wb_ProjectScratch_dir(1) = 'Z:\FEMTryAgain\EX1\_ProjectScratch\Scr52C7\'
*DIM,_wb_SolverFiles_dir,string,248
_wb_SolverFiles_dir(1) = 'Z:\FEMTryAgain\EX1\EX1_files\dp0\SYS\MECH\'
*DIM,_wb_userfiles_dir,string,248
_wb_userfiles_dir(1) = 'Z:\FEMTryAgain\EX1\EX1_files\user_files\'
/com,--- Data in consistent NMM units. See Solving Units in the help system for more information.
/units,MPA
/nopr
/wb,file,start              !  signify a WB generated input file
/prep7
! Turn off shape checking because checks already performed inside WB mesher.
! See help system for more information.
SHPP,OFF,,NOWARN
/nolist
etcon,set             ! allow ANSYS to choose best KEYOP's for 180x elements, resets any applicable keyopt to MAPDL defaults
/com,*********** Nodes for the whole assembly ***********
nblock,3,,761
(1i9,3e20.9e3)
        1     0.000000000E+00     1.000000000E+01     0.000000000E+00
        2     0.000000000E+00     0.000000000E+00     0.000000000E+00
        3     0.000000000E+00     0.000000000E+00     2.000000000E+01
        4     0.000000000E+00     0.000000000E+00     1.000000000E+01
        5     0.000000000E+00     1.000000000E+01     2.000000000E+01
        6     0.000000000E+00     1.000000000E+01     1.000000000E+01
        7     2.000000000E+02     0.000000000E+00     0.000000000E+00
        8     1.000000000E+01     0.000000000E+00     0.000000000E+00
        9     2.000000000E+01     0.000000000E+00     0.000000000E+00
       10     3.000000000E+01     0.000000000E+00     0.000000000E+00
       11     4.000000000E+01     0.000000000E+00     0.000000000E+00
       12     5.000000000E+01     0.000000000E+00     0.000000000E+00
       13     6.000000000E+01     0.000000000E+00     0.000000000E+00
       14     7.000000000E+01     0.000000000E+00     0.000000000E+00
       15     8.000000000E+01     0.000000000E+00     0.000000000E+00
       16     9.000000000E+01     0.000000000E+00     0.000000000E+00
       17     1.000000000E+02     0.000000000E+00     0.000000000E+00
       18     1.100000000E+02     0.000000000E+00     0.000000000E+00
       19     1.200000000E+02     0.000000000E+00     0.000000000E+00
       20     1.300000000E+02     0.000000000E+00     0.000000000E+00
! ... 673 like lines cut
/wb,elem,start            !  set before creation of elements
/com,*********** Elements for Body 1 "____" ***********
et,1,187
eblock,19,solid,,293
(19i9)
        1        1        1        1        0        0        0        0       10        0        1       59       94      101      113      461      619      462      463
      621      643
        1        1        1        1        0        0        0        0       10        0        2       17      101      113       59      230      643      231      228
      462      463
        1        1        1        1        0        0        0        0       10        0        3       78      101       94      113      548      619      547      549
      643      621
        1        1        1        1        0        0        0        0       10        0        4       59      122       94      113      464      622      461      463
      675      621
        1        1        1        1        0        0        0        0       10        0        5       17      101       59       60      230      462      228      229
      467      460
        1        1        1        1        0        0        0        0       10        0        6       17      113       18       59      231      236      227      228
      463      235
        1        1        1        1        0        0        0        0       10        0        7       17      113      101      121      231      643      230      232
      674      644
        1        1        1        1        0        0        0        0       10        0        8       38      101       78      113      360      548      358      361
      643      549
        1        1        1        1        0        0        0        0       10        0        9       78       94      122      113      547      622      550      549
      621      675
        1        1        1        1        0        0        0        0       10        0       10       18      113      122       59      236      675      237      235
      463      464
! ... 567 like lines cut
!Material Id = {DDE61BE5-48D4-440F-AB92-363E8312C55D}
/wb,elem,end               !  done creating elements
/com,*********** Send User Defined Coordinate System(s) ***********
csys,0
toffst,273.15,  ! Temperature offset from absolute zero
/com,*********** Set Reference Temperature ***********
tref,22.
/wb,mat,start              !  starting to send materials
/com,*********** Send Materials ***********
Temperature = 'TEMP' ! Temperature
MP,DENS,1,7.85e-09,	! tonne mm^-3
MP,ALPX,1,1.2e-05,	! C^-1
MP,C,1,434000000,	! mm^2 s^-2 C^-1
MP,KXX,1,60.5,	! tonne mm s^-3 C^-1
MP,RSVX,1,0.00017,	! ohm mm
MP,EX,1,200000,	! tonne s^-2 mm^-1
MP,NUXY,1,0.3,
MP,MURX,1,10000,
MP,UVID,1,68610675-620e-44a1-aa24-2426c2744e1f
MP,UMID,1,59002a79-71c2-428e-906b-55d7dbee100e

/wb,mat,end                !  done sending materials
!************************* Model Summary ********************
!____,	\p|,	matid,	1
!************************* End Model Summary ********************
! get the diagonal of the bounding box. Needed later for other things
*get,_xmin,node,,mnloc,x
*get,_ymin,node,,mnloc,y
*get,_zmin,node,,mnloc,z
*get,_xmax,node,,mxloc,x
*get,_ymax,node,,mxloc,y
*get,_zmax,node,,mxloc,z
_ASMDIAG=(_xmax-_xmin)*(_xmax-_xmin)+(_ymax-_ymin)*(_ymax-_ymin)+(_zmax-_zmin)*(_zmax-_zmin)
_ASMDIAG=SQRT(_ASMDIAG)
/wb,contact,start          !  starting to send contact
/wb,contact,end            !  done creating contacts
/golist
/wb,load,start             !  starting to send loads
/com,********* Frictionless Supports X *********
CMBLOCK,_FRICSUX,NODE,       15
(8i10)
         1         2         3         4         5         6       138       139
       140       144       148       149       154       155       160
cmsel,s,_FRICSUX
d,all,ux,0
nsel,all
/com,******* Constant Zero Displacement Y *******
CMBLOCK,_DISPZEROUY,NODE,        5
(8i10)
         1         5         6       140       160
cmsel,s,_DISPZEROUY
d,all,uy,0
nsel,all
/com,******* Constant Zero Displacement Z *******
CMBLOCK,_DISPZEROUZ,NODE,        5
(8i10)
         1         5         6       140       160
cmsel,s,_DISPZEROUZ
d,all,uz,0
nsel,all
/com,*********** Define Force Using Surface Effect Elements ***********
local,12,0,0.,0.,0.,0.,0.,0.
csys,0
et,2,154
mat,2
eblock,10,,,4
(15i9)
      546        2        2        2       12       27       50       49       49      294      417       49      293
      547        2        2        2       12        7       48       28       28      169      297       28      168
      548        2        2        2       12       28       48       50       50      297      414       50      298
      549        2        2        2       12       28       50       27       27      298      294       27      291
-1
esel,s,type,,2
keyop,2,2,1                ! Apply load in local coordinate system
keyop,2,7,1                ! Use original area so load is constant in large deformation
esel,all
/gst,on,on
fini
*get,_numnode,node,0,count
*get,_numelem,elem,0,count
*get, _MAXELEMNUM, elem, 0, NUM, MAX
*get, _MAXNODENUM, node, 0, NUM, MAX
*get, _MAXELEMTYPE, etyp, 0, NUM, MAX
*get, _MAXREALCONST, rcon, 0, NUM, MAX
/go
/wb,load,end               !  done creating loads
/com,--- Number of total nodes = %_numnode%
/com,--- Number of contact elements = 4
/com,--- Number of spring elements = 0
/com,--- Number of bearing elements = 0
/com,--- Number of solid elements = 293
/com,--- Number of condensed parts = 0
/com,--- Number of total elements = %_numelem%
*get,_wallbsol,active,,time,wall
/com,****************************************************************************
/com,*************************    SOLUTION       ********************************
/com,****************************************************************************
/solu
antype,0                   ! static analysis
_thickRatio=  0     ! Ratio of thick parts in the model
eqsl,sparse,,,,,1
cntr,print,1               ! print out contact info and also make no initial contact an error
dmpoption,emat,no             ! Don't combine emat file for DANSYS
dmpoption,esav,no             ! Don't combine esav file for DANSYS
nldiag,cont,iter           ! print out contact info each equilibrium iteration
rescontrol,,none                 ! Do not keep any restart files
/com,****************************************************
/com,******************* SOLVE FOR LS 1 OF 1 ****************
esel,s,type,,2
nsle
sfe,all,1,pres,1,0.
sfe,all,2,pres,1,-0.49999999999985
sfe,all,3,pres,1,0.
nsel,all
esel,all
/nopr
/gopr
nsub,1,1,1
time,1.
outres,erase
outres,all,none
outres,nsol,all,
outres,rsol,all
outres,eangl,all
outres,etmp,all
outres,veng,all
outres,strs,all,
outres,epel,all,
outres,eppl,all,
outres,cont,all,
! *********** WB SOLVE COMMAND ***********
! check interactive state
*get,ANSINTER_,active,,int
*if,ANSINTER_,ne,0,then
/eof
*endif
solve
/com *************** Write FE CONNECTORS ********* 
CEWRITE,file,ce,,INTE
/com,****************************************************
/com,*************** FINISHED SOLVE FOR LS 1 *************
*get,_wallasol,active,,time,wall
/nopr
*get,_numnode,node,0,count
*get,_numelem,elem,0,count
*get, _MAXELEMNUM, elem, 0, NUM, MAX
*get, _MAXNODENUM, node, 0, NUM, MAX,,,INTERNAL
*get, _MAXELEMTYPE, etyp, 0, NUM, MAX
*get, _MAXREALCONST, rcon, 0, NUM, MAX
*get,_NSOLTHREADS,active,0,ntfs
*get,_NSOLPROCESSES,active,0,npfs
/gopr
/post1
xmlo,ENCODING,ISO-8859-1
xmlo,parm
/xml,parm,xml
fini
/gopr
*get,_walldone,active,,time,wall
_preptime=(_wallbsol-_wallstrt)*3600
_solvtime=(_wallasol-_wallbsol)*3600
_posttime=(_walldone-_wallasol)*3600
_totaltim=(_walldone-_wallstrt)*3600
*get,_dlbratio,active,0,solu,dlbr
*get,_combtime,active,0,solu,comb
*get,_ssmode,active,0,solu,ssmm
*get,_ndofs,active,0,solu,ndof
*get,_sol_end_time,active,0,set,time
*if,_sol_end_time,eq,1.000000,then
/fclean				!clean distributed files
*endif
/com,--- Total number of nodes = %_numnode%
/com,--- Total number of elements = %_numelem%
/com,--- Element load balance ratio = %_dlbratio%
/com,--- Time to combine distributed files = %_combtime%
/com,--- Sparse memory mode = %_ssmode%
/com,--- Number of DOF = %_ndofs%
/wb,file,end               ! done with WB generated input
