/batch
/config,noeldb,1     ! force off writing results to database
*get,_wallstrt,active,,time,wall
! ANSYS input file written by Workbench version 2023 R2
! File used for geometry attach: C:\Users\ep22i070\AppData\Local\Temp\WB_ep22i070_11336_2\wbnew_files\dp0\SYS\DM\SYS.agdb
/title,wbnew--____ (A5)
! ****** Begin Custom Load Command Snippet ******
/COM, ACT Extensions:
/COM,     LSDYNA, 2023.2
/COM,     5f463412-bd3e-484b-87e7-cbc0a665e474, wbex
/COM,/COM,     ANSYSMotion, 2023.2
/COM,     20180725-3f81-49eb-9f31-41364844c769, wbex
/COM,
! ****** End   Custom Load Command Snippet ******
*DIM,_wb_ProjectScratch_dir,string,248
_wb_ProjectScratch_dir(1) = 'C:\Users\ep22i070\AppData\Local\Temp\WB_ep22i070_11336_2\_ProjectScratch\Scr4106\'
*DIM,_wb_SolverFiles_dir,string,248
_wb_SolverFiles_dir(1) = 'C:\Users\ep22i070\AppData\Local\Temp\WB_ep22i070_11336_2\wbnew_files\dp0\SYS\MECH\'
*DIM,_wb_userfiles_dir,string,248
_wb_userfiles_dir(1) = 'C:\Users\ep22i070\AppData\Local\Temp\WB_ep22i070_11336_2\wbnew_files\user_files\'
/com,--- Data in consistent NMM units. See Solving Units in the help system for more information.
/units,MPA
/nopr
/wb,file,start              !  signify a WB generated input file
/prep7
! Turn off shape checking because checks already performed inside WB mesher.
! See help system for more information.
SHPP,OFF,,NOWARN
/nolist
etcon,set             ! allow ANSYS to choose best KEYOP's for 180x elements, resets any applicable keyopt to MAPDL defaults
/com,*********** Nodes for the whole assembly ***********
nblock,3,,19218
(1i9,3e20.9e3)
        1     5.337516089E+01     9.414816216E+00     4.232598586E+00
        2     5.150507154E+01     9.432927606E+00     3.783141542E-01
        3     4.738851812E+01     1.231391886E+01     7.112296279E+00
        4     5.328937490E+01     9.723053443E+00     9.154776722E+00
        5     4.895293045E+01     1.128566080E+01     9.787137457E+00
        6     4.948215051E+01     1.163623227E+01     8.946454555E+00
        7     4.948805443E+01     1.286168589E+01     8.358561943E+00
        8     5.243052843E+01     8.825915835E+00     8.541902190E+00
        9     4.775657970E+01     1.212746535E+01     5.545093975E+00
       10     5.329190458E+01     9.599822314E+00     5.883725967E-01
       11     4.943559491E+01     1.163805835E+01     6.114390784E+00
       12     4.971125567E+01     1.173829961E+01     2.807972905E+00
       13     5.000000000E+01     1.146655587E+01     2.757736455E+00
       14     5.000000000E+01     1.183878512E+01     3.218070438E+00
       15     4.959383241E+01     1.171931898E+01     3.414331967E+00
       16     5.000000000E+01     1.135624198E+01     3.234344973E+00
       17     4.964212789E+01     1.202902739E+01     1.852574491E+00
       18     5.000000000E+01     1.168902584E+01     1.910902295E+00
       19     5.000000000E+01     1.212772052E+01     2.209579361E+00
       20     4.955027529E+01     1.200767123E+01     2.420046832E+00
! ... 17452 like lines cut
/wb,elem,start            !  set before creation of elements
/com,*********** Elements for Body 1 "____" ***********
et,1,187
eblock,19,solid,,11205
(19i9)
        1        1        1        1        0        0        0        0       10        0        1      117      439      116      450     5647     3390     3386     3124
     2550     2549
        1        1        1        1        0        0        0        0       10        0        2      117      116       74      450     3386     3388     3387     3124
     2549     2556
        1        1        1        1        0        0        0        0       10        0        3      116      439       74      450     3390     5340     3388     2549
     2550     2556
        1        1        1        1        0        0        0        0       10        0        4      450      576      453      439     5680     3211     5692     2550
     3205     5748
        1        1        1        1        0        0        0        0       10        0        5      117      450      453      439     3124     5692     3389     5647
     2550     5748
        1        1        1        1        0        0        0        0       10        0        6      576      450       74      439     5680     2556     2552     3205
     2550     5340
        1        1        1        1        0        0        0        0       10        0        7       15      439      572      576     4890     5656     5298     2551
     3205     3206
        1        1        1        1        0        0        0        0       10        0        8      460       15      572      576     5330     5298     5722     5705
     2551     3206
        1        1        1        1        0        0        0        0       10        0        9      439       15       74      576     4890     5339     5340     3205
     2551     2552
        1        1        1        1        0        0        0        0       10        0       10       15      460       74      576     5330     3328     5339     2551
     5705     2552
! ... 22391 like lines cut
!Material Id = {5A1DFD06-88E6-4D03-9C13-EB708DD971E4}
/wb,elem,end               !  done creating elements
/com,*********** Send User Defined Coordinate System(s) ***********
csys,0
toffst,273.15,  ! Temperature offset from absolute zero
/com,*********** Set Reference Temperature ***********
tref,22.
/wb,mat,start              !  starting to send materials
/com,*********** Send Materials ***********
Temperature = 'TEMP' ! Temperature
MP,DENS,1,7.85e-09,	! tonne mm^-3
MP,ALPX,1,1.2e-05,	! C^-1
MP,C,1,434000000,	! mm^2 s^-2 C^-1
MP,KXX,1,60.5,	! tonne mm s^-3 C^-1
MP,RSVX,1,0.00017,	! ohm mm
MP,EX,1,200000,	! tonne s^-2 mm^-1
MP,NUXY,1,0.3,
MP,MURX,1,10000,
MP,UVID,1,13158bc7-eb15-4612-8caa-edb7419034d7
MP,UMID,1,59002a79-71c2-428e-906b-55d7dbee100e

/wb,mat,end                !  done sending materials
!************************* Model Summary ********************
!____,	\p|,	matid,	1
!************************* End Model Summary ********************
! get the diagonal of the bounding box. Needed later for other things
*get,_xmin,node,,mnloc,x
*get,_ymin,node,,mnloc,y
*get,_zmin,node,,mnloc,z
*get,_xmax,node,,mxloc,x
*get,_ymax,node,,mxloc,y
*get,_zmax,node,,mxloc,z
_ASMDIAG=(_xmax-_xmin)*(_xmax-_xmin)+(_ymax-_ymin)*(_ymax-_ymin)+(_zmax-_zmin)*(_zmax-_zmin)
_ASMDIAG=SQRT(_ASMDIAG)
/wb,contact,start          !  starting to send contact
/wb,contact,end            !  done creating contacts
/golist
/wb,load,start             !  starting to send loads
/com,*********** Fixed Supports ***********
CMBLOCK,_FIXEDSU,NODE,      165
(8i10)
      1691      1692      1693      1694      1695      1696      1697      1698
      1699      1700      1701      1702      1703      1704      1705      1706
      1707      1708      1709      1710      1711      1712      1713      1714
      2482      2483      2484      2485      2486      2487      2488      2489
      2490      2491      2492      2493      2494      2495      2496      2497
      2498      2499      2500      2524      2525      2526      2527      2547
     12002     12008     12019     12020     12024     12025     12030     12036
     12040     12041     12046     12047     12052     12053     12058     12059
     12060     12066     12067     12068     12073     12074     12080     12081
     12088     12089     12090     12091     12096     12097     12098     12099
     12103     12104     12105     12106     12107     12113     12114     12115
     12116     12117     12118     12119     12125     12126     12127     12128
     12129     12130     12131     17037     17040     17041     17045     17047
     17048     17051     17053     17054     17055     17058     17061     17062
     17065     17068     17069     17072     17075     17076     17079     17081
     17086     17087     17090     17093     17094     17097     17099     17103
     17104     17107     17108     17110     17113     17114     17118     17120
     17121     17124     17127     17128     17129     17132     17134     17135
     17138     17139     17140     17143     17145     17148     17153     17154
     17311     17312     17317     17318     17319     17322     17323     17325
     17326     17328     17463     17464     17465
cmsel,s,_FIXEDSU
d,all,all
nsel,all
/com,*********** Define Force Using Surface Effect Elements ***********
local,12,0,0.,0.,0.,0.,0.,0.
csys,0
et,2,154
mat,2
eblock,10,,,38
(15i9)
    13548        2        2        2       12     2441     2440     1855     1855    16768    16760     1855    16765
    13549        2        2        2       12     1855     2390     2441     2441    16427    16766     2441    16765
    13550        2        2        2       12     1864     1861     1860     1860    13033    13011     1860    13032
    13551        2        2        2       12     1858     1861     1864     1864    13010    13033     1864    13030
    13552        2        2        2       12     2391     1863     1853     1853    16435    13020     1853    16434
    13553        2        2        2       12     2392     1863     2391     2391    16441    16435     2391    16444
    13554        2        2        2       12     2440     1861     1855     1855    16761    13009     1855    16760
    13555        2        2        2       12     2393     1857     2392     2392    16447    16440     2392    16450
    13556        2        2        2       12     2389     1862     2388     2388    16421    16415     2388    16424
    13557        2        2        2       12     2440     2439     1861     1861    16763    16756     1861    16761
    13558        2        2        2       12     2395     1853     2396     2396    16457    16462     2396    16467
    13559        2        2        2       12     2398     1853     2395     2395    16475    16457     2395    16479
    13560        2        2        2       12     2398     2391     1853     1853    16478    16434     1853    16475
    13561        2        2        2       12     1864     1857     1862     1862    13029    13015     1862    13034
    13562        2        2        2       12     1864     1862     1858     1858    13034    13016     1858    13030
    13563        2        2        2       12     1858     1862     2389     2389    13016    16421     2389    16420
    13564        2        2        2       12     1862     1856     2388     2388    13014    16414     2388    16415
    13565        2        2        2       12     1862     1857     1856     1856    13015    12987     1856    13014
    13566        2        2        2       12     1856     1857     2393     2393    12987    16447     2393    16446
    13567        2        2        2       12     2394     2388     1856     1856    16454    16414     1856    16452
! ... 19 like lines cut
esel,s,type,,2
keyop,2,2,1                ! Apply load in local coordinate system
keyop,2,7,1                ! Use original area so load is constant in large deformation
esel,all
/gst,on,on
fini
*get,_numnode,node,0,count
*get,_numelem,elem,0,count
*get, _MAXELEMNUM, elem, 0, NUM, MAX
*get, _MAXNODENUM, node, 0, NUM, MAX
*get, _MAXELEMTYPE, etyp, 0, NUM, MAX
*get, _MAXREALCONST, rcon, 0, NUM, MAX
/go
/wb,load,end               !  done creating loads
/com,--- Number of total nodes = %_numnode%
/com,--- Number of contact elements = 38
/com,--- Number of spring elements = 0
/com,--- Number of bearing elements = 0
/com,--- Number of solid elements = 11205
/com,--- Number of condensed parts = 0
/com,--- Number of total elements = %_numelem%
*get,_wallbsol,active,,time,wall
/com,****************************************************************************
/com,*************************    SOLUTION       ********************************
/com,****************************************************************************
/solu
antype,0                   ! static analysis
_thickRatio=  1     ! Ratio of thick parts in the model
eqsl,pcg,1e-8,,,,,,1
cntr,print,1               ! print out contact info and also make no initial contact an error
dmpoption,emat,no             ! Don't combine emat file for DANSYS
dmpoption,esav,no             ! Don't combine esav file for DANSYS
nldiag,cont,iter           ! print out contact info each equilibrium iteration
rescontrol,,none                 ! Do not keep any restart files
/com,****************************************************
/com,******************* SOLVE FOR LS 1 OF 1 ****************
esel,s,type,,2
nsle
sfe,all,1,pres,1,0.
sfe,all,2,pres,1,-0.9999999999997
sfe,all,3,pres,1,0.
nsel,all
esel,all
/nopr
/gopr
nsub,1,1,1
time,1.
outres,erase
outres,all,none
outres,nsol,all,
outres,rsol,all
outres,eangl,all
outres,etmp,all
outres,veng,all
outres,strs,all,
outres,epel,all,
outres,eppl,all,
outres,cont,all,
! *********** WB SOLVE COMMAND ***********
! check interactive state
*get,ANSINTER_,active,,int
*if,ANSINTER_,ne,0,then
/eof
*endif
solve
/com *************** Write FE CONNECTORS ********* 
CEWRITE,file,ce,,INTE
/com,****************************************************
/com,*************** FINISHED SOLVE FOR LS 1 *************
*get,_wallasol,active,,time,wall
/nopr
*get,_numnode,node,0,count
*get,_numelem,elem,0,count
*get, _MAXELEMNUM, elem, 0, NUM, MAX
*get, _MAXNODENUM, node, 0, NUM, MAX,,,INTERNAL
*get, _MAXELEMTYPE, etyp, 0, NUM, MAX
*get, _MAXREALCONST, rcon, 0, NUM, MAX
*get,_NSOLTHREADS,active,0,ntfs
*get,_NSOLPROCESSES,active,0,npfs
/gopr
*get,_PCGITER,active,,solu,cgiter
/post1
xmlo,ENCODING,ISO-8859-1
xmlo,parm
/xml,parm,xml
fini
/gopr
*get,_walldone,active,,time,wall
_preptime=(_wallbsol-_wallstrt)*3600
_solvtime=(_wallasol-_wallbsol)*3600
_posttime=(_walldone-_wallasol)*3600
_totaltim=(_walldone-_wallstrt)*3600
*get,_dlbratio,active,0,solu,dlbr
*get,_combtime,active,0,solu,comb
*get,_ssmode,active,0,solu,ssmm
*get,_ndofs,active,0,solu,ndof
*get,_sol_end_time,active,0,set,time
*if,_sol_end_time,eq,1.000000,then
/fclean				!clean distributed files
*endif
/com,--- Total number of nodes = %_numnode%
/com,--- Total number of elements = %_numelem%
/com,--- Element load balance ratio = %_dlbratio%
/com,--- Time to combine distributed files = %_combtime%
/com,--- Sparse memory mode = %_ssmode%
/com,--- Number of DOF = %_ndofs%
/wb,file,end               ! done with WB generated input
