/batch
/config,noeldb,1     ! force off writing results to database
*get,_wallstrt,active,,time,wall
! ANSYS input file written by Workbench version 2023 R2
! File used for geometry attach: C:\Users\ep22i070\AppData\Local\Temp\WB_ep22i070_9648_2\wbnew_files\dp0\SYS\DM\SYS.agdb
/title,wbnew--____ (A5)
! ****** Begin Custom Load Command Snippet ******
/COM, ACT Extensions:
/COM,     LSDYNA, 2023.2
/COM,     5f463412-bd3e-484b-87e7-cbc0a665e474, wbex
/COM,/COM,     ANSYSMotion, 2023.2
/COM,     20180725-3f81-49eb-9f31-41364844c769, wbex
/COM,
! ****** End   Custom Load Command Snippet ******
*DIM,_wb_ProjectScratch_dir,string,248
_wb_ProjectScratch_dir(1) = 'C:\Users\ep22i070\AppData\Local\Temp\WB_ep22i070_9648_2\_ProjectScratch\Scr4FB9\'
*DIM,_wb_SolverFiles_dir,string,248
_wb_SolverFiles_dir(1) = 'C:\Users\ep22i070\AppData\Local\Temp\WB_ep22i070_9648_2\wbnew_files\dp0\SYS\MECH\'
*DIM,_wb_userfiles_dir,string,248
_wb_userfiles_dir(1) = 'C:\Users\ep22i070\AppData\Local\Temp\WB_ep22i070_9648_2\wbnew_files\user_files\'
/com,--- Data in consistent NMM units. See Solving Units in the help system for more information.
/units,MPA
/nopr
/wb,file,start              !  signify a WB generated input file
/prep7
! Turn off shape checking because checks already performed inside WB mesher.
! See help system for more information.
SHPP,OFF,,NOWARN
/nolist
etcon,set             ! allow ANSYS to choose best KEYOP's for 180x elements, resets any applicable keyopt to MAPDL defaults
/com,*********** Nodes for the whole assembly ***********
nblock,3,,34989
(1i9,3e20.9e3)
        1     1.975000000E+02     7.500000000E+00     2.500000000E+00
        2     1.975000000E+02     5.000000000E+00     2.500000000E+00
        3     1.975000000E+02     2.500000000E+00     2.500000000E+00
        4     1.950000000E+02     7.500000000E+00     2.500000000E+00
        5     1.950000000E+02     5.000000000E+00     2.500000000E+00
        6     1.950000000E+02     2.500000000E+00     2.500000000E+00
        7     1.925000000E+02     7.500000000E+00     2.500000000E+00
        8     1.925000000E+02     5.000000000E+00     2.500000000E+00
        9     1.925000000E+02     2.500000000E+00     2.500000000E+00
       10     1.900000000E+02     7.500000000E+00     2.500000000E+00
       11     1.900000000E+02     5.000000000E+00     2.500000000E+00
       12     1.900000000E+02     2.500000000E+00     2.500000000E+00
       13     1.875000000E+02     7.500000000E+00     2.500000000E+00
       14     1.875000000E+02     5.000000000E+00     2.500000000E+00
       15     1.875000000E+02     2.500000000E+00     2.500000000E+00
       16     1.850000000E+02     7.500000000E+00     2.500000000E+00
       17     1.850000000E+02     5.000000000E+00     2.500000000E+00
       18     1.850000000E+02     2.500000000E+00     2.500000000E+00
       19     1.825000000E+02     7.500000000E+00     2.500000000E+00
       20     1.825000000E+02     5.000000000E+00     2.500000000E+00
! ... 31790 like lines cut
/wb,elem,start            !  set before creation of elements
/com,*********** Elements for Body 1 "____" ***********
et,1,186
keyo,1,2,1          ! set full integration on SOLID186
eblock,19,solid,,6400
(19i9)
        1        1        1        1        0        0        0        0       20        0        1        1     7790     7867     8190     6004     7865     7866     8427
     8510    30564    30701     8511    26908    30697    30699    26909     8509    30563    30698    31263
        1        1        1        1        0        0        0        0       20        0        2        1     8190     7867     7790        2     8269     7868     7791
     8511    30701    30564     8510     8516    30703    30567     8515     8506    31262    30700    30561
        1        1        1        1        0        0        0        0       20        0        3        2     8269     7868     7791        3     8348     7869     7792
     8516    30703    30567     8515     8521    30704    30569     8520     8512    31498    30702    30565
        1        1        1        1        0        0        0        0       20        0        4        3     8348     7869     7792     6005     7506     7664     7665
     8521    30704    30569     8520    26912    30011    30328    26913     8519    30012    30329    30331
        1        1        1        1        0        0        0        0       20        0        5        1      238     7793     7790     6004     5925     7864     7865
     8508     9540    30562     8510    26749    26750    30696    26908     8509     9539    30572    30563
        1        1        1        1        0        0        0        0       20        0        6        1     7790     7793      238        2     7791     7794      239
     8510    30562     9540     8508     8515    30566     9544     8514     8506    30561    30570     9536
        1        1        1        1        0        0        0        0       20        0        7        2     7791     7794      239        3     7792     7795      240
     8515    30566     9544     8514     8520    30568     9548     8518     8512    30565    30573     9541
        1        1        1        1        0        0        0        0       20        0        8        3     7792     7795      240     6005     7665     7666     6084
     8520    30568     9548     8518    26913    30330    27150    26911     8519    30331    30333     9547
        1        1        1        1        0        0        0        0       20        0        9      238      475     7796     7793     5925     5846     7863     7864
     9538    10333    30571     9540    26590    26591    30695    26750     9539    10332    30578    30572
        1        1        1        1        0        0        0        0       20        0       10      238     7793     7796      475      239     7794     7797      476
     9540    30571    10333     9538     9544    30574    10337     9543     9536    30570    30576    10329
! ... 12781 like lines cut
!Material Id = {DDE61BE5-48D4-440F-AB92-363E8312C55D}
/wb,elem,end               !  done creating elements
/com,*********** Send User Defined Coordinate System(s) ***********
csys,0
toffst,273.15,  ! Temperature offset from absolute zero
/com,*********** Set Reference Temperature ***********
tref,22.
/wb,mat,start              !  starting to send materials
/com,*********** Send Materials ***********
Temperature = 'TEMP' ! Temperature
MP,DENS,1,7.85e-09,	! tonne mm^-3
MP,ALPX,1,1.2e-05,	! C^-1
MP,C,1,434000000,	! mm^2 s^-2 C^-1
MP,KXX,1,60.5,	! tonne mm s^-3 C^-1
MP,RSVX,1,0.00017,	! ohm mm
MP,EX,1,200000,	! tonne s^-2 mm^-1
MP,NUXY,1,0.3,
MP,MURX,1,10000,
MP,UVID,1,68610675-620e-44a1-aa24-2426c2744e1f
MP,UMID,1,59002a79-71c2-428e-906b-55d7dbee100e

/wb,mat,end                !  done sending materials
!************************* Model Summary ********************
!____,	\p|,	matid,	1
!************************* End Model Summary ********************
! get the diagonal of the bounding box. Needed later for other things
*get,_xmin,node,,mnloc,x
*get,_ymin,node,,mnloc,y
*get,_zmin,node,,mnloc,z
*get,_xmax,node,,mxloc,x
*get,_ymax,node,,mxloc,y
*get,_zmax,node,,mxloc,z
_ASMDIAG=(_xmax-_xmin)*(_xmax-_xmin)+(_ymax-_ymin)*(_ymax-_ymin)+(_zmax-_zmin)*(_zmax-_zmin)
_ASMDIAG=SQRT(_ASMDIAG)
/wb,contact,start          !  starting to send contact
/wb,contact,end            !  done creating contacts
/golist
/wb,load,start             !  starting to send loads
/com,*********** Fixed Supports ***********
CMBLOCK,_FIXEDSU,NODE,      289
(8i10)
      7685      7686      7687      7688      7689      7690      7691      7692
      7693      7694      7695      7696      7697      7698      7699      7700
      7701      7702      7703      7704      7705      7706      7707      7708
      7709      7710      7711      7712      7713      7714      7715      7716
      7717      7718      7719      7720      7721      7722      7723      7724
      7725      7726      7727      7728      7729      7730      7731      7732
      7733      7734      7735      7736      7737      7738      7739      7740
      7741      7742      7743      7744      7745      7746      7747      7748
      7749      7750      7751      7752      7753      7754      7755      7756
      7757      7758      7759      7760      7761      7762      7763      7764
      7765      7766      7767      7768      7769      7770      7771      7772
      7773      7774      7775      7776      7777      7778      7779      7780
      7781      7782      7783      7784      7785      7786      7787      7788
      7789     30369     30370     30371     30372     30373     30374     30375
     30376     30377     30378     30379     30380     30381     30382     30383
     30384     30385     30386     30387     30388     30389     30390     30391
     30392     30393     30394     30395     30396     30397     30398     30399
     30400     30401     30402     30403     30404     30405     30406     30407
     30408     30409     30410     30411     30412     30413     30414     30415
     30416     30417     30418     30419     30420     30421     30422     30423
! ... 17 like lines cut
cmsel,s,_FIXEDSU
d,all,all
nsel,all
/com,*********** Define Force Using Surface Effect Elements ***********
local,12,0,0.,0.,0.,0.,0.,0.
csys,0
et,2,154
mat,2
eblock,10,,,80
(15i9)
    10401        2        2        2       12     7865     7790     7867     7866    30563    30564    30698    30697
    10402        2        2        2       12     7864     7793     7790     7865    30572    30562    30563    30696
    10403        2        2        2       12     7863     7796     7793     7864    30578    30571    30572    30695
    10404        2        2        2       12     7862     7799     7796     7863    30584    30577    30578    30694
    10405        2        2        2       12     7861     7802     7799     7862    30590    30583    30584    30693
    10406        2        2        2       12     7860     7805     7802     7861    30596    30589    30590    30692
    10407        2        2        2       12     7859     7808     7805     7860    30602    30595    30596    30691
    10408        2        2        2       12     7858     7811     7808     7859    30608    30601    30602    30690
    10409        2        2        2       12     7857     7814     7811     7858    30614    30607    30608    30689
    10410        2        2        2       12     7856     7817     7814     7857    30620    30613    30614    30688
    10411        2        2        2       12     7855     7820     7817     7856    30626    30619    30620    30687
    10412        2        2        2       12     7854     7823     7820     7855    30632    30625    30626    30686
    10413        2        2        2       12     7853     7826     7823     7854    30638    30631    30632    30685
    10414        2        2        2       12     7852     7829     7826     7853    30644    30637    30638    30684
    10415        2        2        2       12     7851     7832     7829     7852    30650    30643    30644    30683
    10416        2        2        2       12     7850     7835     7832     7851    30656    30649    30650    30682
    10417        2        2        2       12     7849     7838     7835     7850    30662    30655    30656    30681
    10418        2        2        2       12     7848     7841     7838     7849    30668    30661    30662    30680
    10419        2        2        2       12     7847     7844     7841     7848    30673    30667    30668    30678
    10420        2        2        2       12     7870     7871     7844     7847    30705    30674    30673    30679
! ... 61 like lines cut
esel,s,type,,2
keyop,2,2,1                ! Apply load in local coordinate system
keyop,2,7,1                ! Use original area so load is constant in large deformation
esel,all
/gst,on,on
fini
*get,_numnode,node,0,count
*get,_numelem,elem,0,count
*get, _MAXELEMNUM, elem, 0, NUM, MAX
*get, _MAXNODENUM, node, 0, NUM, MAX
*get, _MAXELEMTYPE, etyp, 0, NUM, MAX
*get, _MAXREALCONST, rcon, 0, NUM, MAX
/go
/wb,load,end               !  done creating loads
/com,--- Number of total nodes = %_numnode%
/com,--- Number of contact elements = 80
/com,--- Number of spring elements = 0
/com,--- Number of bearing elements = 0
/com,--- Number of solid elements = 6400
/com,--- Number of condensed parts = 0
/com,--- Number of total elements = %_numelem%
*get,_wallbsol,active,,time,wall
/com,****************************************************************************
/com,*************************    SOLUTION       ********************************
/com,****************************************************************************
/solu
antype,0                   ! static analysis
_thickRatio=  1     ! Ratio of thick parts in the model
eqsl,pcg,1e-8,,,,,,1
cntr,print,1               ! print out contact info and also make no initial contact an error
dmpoption,emat,no             ! Don't combine emat file for DANSYS
dmpoption,esav,no             ! Don't combine esav file for DANSYS
nldiag,cont,iter           ! print out contact info each equilibrium iteration
rescontrol,,none                 ! Do not keep any restart files
/com,****************************************************
/com,******************* SOLVE FOR LS 1 OF 1 ****************
esel,s,type,,2
nsle
sfe,all,1,pres,1,0.200000000000015
sfe,all,2,pres,1,0.
sfe,all,3,pres,1,0.
nsel,all
esel,all
/nopr
/gopr
nsub,1,1,1
time,1.
outres,erase
outres,all,none
outres,nsol,all,
outres,rsol,all
outres,eangl,all
outres,etmp,all
outres,veng,all
outres,strs,all,
outres,epel,all,
outres,eppl,all,
outres,cont,all,
! *********** WB SOLVE COMMAND ***********
! check interactive state
*get,ANSINTER_,active,,int
*if,ANSINTER_,ne,0,then
/eof
*endif
solve
/com *************** Write FE CONNECTORS ********* 
CEWRITE,file,ce,,INTE
/com,****************************************************
/com,*************** FINISHED SOLVE FOR LS 1 *************
*get,_wallasol,active,,time,wall
/nopr
*get,_numnode,node,0,count
*get,_numelem,elem,0,count
*get, _MAXELEMNUM, elem, 0, NUM, MAX
*get, _MAXNODENUM, node, 0, NUM, MAX,,,INTERNAL
*get, _MAXELEMTYPE, etyp, 0, NUM, MAX
*get, _MAXREALCONST, rcon, 0, NUM, MAX
*get,_NSOLTHREADS,active,0,ntfs
*get,_NSOLPROCESSES,active,0,npfs
/gopr
*get,_PCGITER,active,,solu,cgiter
/post1
xmlo,ENCODING,ISO-8859-1
xmlo,parm
/xml,parm,xml
fini
/gopr
*get,_walldone,active,,time,wall
_preptime=(_wallbsol-_wallstrt)*3600
_solvtime=(_wallasol-_wallbsol)*3600
_posttime=(_walldone-_wallasol)*3600
_totaltim=(_walldone-_wallstrt)*3600
*get,_dlbratio,active,0,solu,dlbr
*get,_combtime,active,0,solu,comb
*get,_ssmode,active,0,solu,ssmm
*get,_ndofs,active,0,solu,ndof
*get,_sol_end_time,active,0,set,time
*if,_sol_end_time,eq,1.000000,then
/fclean				!clean distributed files
*endif
/com,--- Total number of nodes = %_numnode%
/com,--- Total number of elements = %_numelem%
/com,--- Element load balance ratio = %_dlbratio%
/com,--- Time to combine distributed files = %_combtime%
/com,--- Sparse memory mode = %_ssmode%
/com,--- Number of DOF = %_ndofs%
/wb,file,end               ! done with WB generated input
